18
/gpfs1/home/osl/test/Naphthalene/Gaussian 16 Excited States TDA 10 Singlets 10 Triplets PBE1PBE (GD3BJ) Toluene 6-31G(d,p)/Output/Naphthalene.log	Energy: -241881.8719601
C          0.00000        1.24046        1.39914
C          0.00000        2.42600        0.70664
C          0.00000        2.42600       -0.70664
C          0.00000        1.24046       -1.39914
C         -0.00000        0.00000       -0.71423
C         -0.00000        0.00000        0.71423
C         -0.00000       -1.24046        1.39914
C         -0.00000       -1.24046       -1.39914
C         -0.00000       -2.42600       -0.70664
C         -0.00000       -2.42600        0.70664
H          0.00000        1.23670        2.48620
H          0.00000        3.36970        1.24397
H          0.00000        3.36970       -1.24397
H          0.00000        1.23670       -2.48620
H         -0.00000       -1.23670        2.48620
H         -0.00000       -1.23670       -2.48620
H         -0.00000       -3.36970       -1.24397
H         -0.00000       -3.36970        1.24397
