11
/gpfs1/home/osl/test/Pyridine/Gaussian 16 Optimisation Frequencies PBE1PBE (GD3BJ) Toluene 6-31G(d,p)/Output/Pyridine.log	Energy: -155626.7158438
C         -1.13866       -0.71995        0.00002
C         -1.19540        0.67093       -0.00002
C         -0.00003        1.38179       -0.00002
C          1.19537        0.67097       -0.00002
C          1.13869       -0.71991       -0.00003
N          0.00002       -1.41721        0.00006
H         -2.05707       -1.30463        0.00004
H         -2.15405        1.17942       -0.00004
H         -0.00004        2.46782       -0.00005
H          2.15400        1.17951       -0.00002
H          2.05711       -1.30456        0.00004
