11
/gpfs1/home/osl/test/Pyridine/Gaussian 16 Excited States TDA 10 Singlets 10 Triplets PBE1PBE (GD3BJ) Toluene 6-31G(d,p)/Output/Pyridine.log	Energy: -155626.7158413
C          1.13865       -0.71996       -0.00002
C          1.19540        0.67092        0.00002
C          0.00004        1.38179        0.00002
C         -1.19537        0.67098        0.00002
C         -1.13870       -0.71990        0.00003
N         -0.00003       -1.41721       -0.00006
H          2.05706       -1.30465       -0.00004
H          2.15406        1.17940        0.00004
H          0.00006        2.46782        0.00005
H         -2.15399        1.17953        0.00002
H         -2.05712       -1.30454       -0.00004
