11
/gpfs1/home/osl/test/Pyridine/Gaussian 16 Excited States TDA Optimised S(1) PBE1PBE (GD3BJ) Toluene 6-31G(d,p)/Output/Pyridine.log	Energy: -155615.0450142
C          1.22233       -0.73271       -0.00002
C          1.22369        0.64226        0.00001
C          0.00000        1.36948        0.00003
C         -1.22367        0.64228        0.00002
C         -1.22235       -0.73271       -0.00002
N         -0.00000       -1.30654       -0.00004
H          2.10602       -1.35834       -0.00001
H          2.18907        1.13976        0.00003
H          0.00000        2.45133        0.00006
H         -2.18904        1.13979        0.00005
H         -2.10605       -1.35832       -0.00002
