!Put Keywords Here, check Charge and Multiplicity.
#

 m1

0  1
C          -0.56710         3.74050         0.00000
C          -1.81300         2.83530         0.00000
C          -1.33710         1.37080         0.00000
C           0.20290         1.37080         0.00000
C           0.67870         2.83530         0.00000
H          -0.56708         4.81050         0.00000
H           0.38629         4.22624         0.00000
H          -2.83064         3.16593         0.00000
H          -2.56958         2.07868         0.00000
H          -1.96602         0.50514         0.00000
H          -0.85132         0.41743         0.00000
H           0.83184         0.50516         0.00000
H           1.25972         1.53821         0.00000
H           1.69633         3.16594         0.00000
H           0.84611         3.89212         0.00000

